# generated using pymatgen
data_Ce2CoRu3
_symmetry_space_group_name_H-M   'P 1'
_cell_length_a   5.02268727
_cell_length_b   5.02325858
_cell_length_c   5.02272405
_cell_angle_alpha   67.12562056
_cell_angle_beta   67.14043541
_cell_angle_gamma   67.12451783
_symmetry_Int_Tables_number   1
_chemical_formula_structural   Ce2CoRu3
_chemical_formula_sum   'Ce2 Co1 Ru3'
_cell_volume   103.28485040
_cell_formula_units_Z   1
loop_
 _symmetry_equiv_pos_site_id
 _symmetry_equiv_pos_as_xyz
  1  'x, y, z'
loop_
 _atom_site_type_symbol
 _atom_site_label
 _atom_site_symmetry_multiplicity
 _atom_site_fract_x
 _atom_site_fract_y
 _atom_site_fract_z
 _atom_site_occupancy
  Ce  Ce0  1  0.63142204  0.63132358  0.63142304  1
  Ce  Ce1  1  0.36857796  0.36867642  0.36857696  1
  Co  Co2  1  0.00000000  0.00000000  0.00000000  1
  Ru  Ru3  1  0.00000000  0.50000000  0.00000000  1
  Ru  Ru4  1  0.50000000  0.00000000  0.00000000  1
  Ru  Ru5  1  0.00000000  0.00000000  0.50000000  1
