# generated using pymatgen
data_CeAu2
_symmetry_space_group_name_H-M   'P 1'
_cell_length_a   5.96209337
_cell_length_b   5.96505204
_cell_length_c   5.96505204
_cell_angle_alpha   133.07291433
_cell_angle_beta   106.10531065
_cell_angle_gamma   92.28241465
_symmetry_Int_Tables_number   1
_chemical_formula_structural   CeAu2
_chemical_formula_sum   'Ce2 Au4'
_cell_volume   140.71612115
_cell_formula_units_Z   2
loop_
 _symmetry_equiv_pos_site_id
 _symmetry_equiv_pos_as_xyz
  1  'x, y, z'
loop_
 _atom_site_type_symbol
 _atom_site_label
 _atom_site_symmetry_multiplicity
 _atom_site_fract_x
 _atom_site_fract_y
 _atom_site_fract_z
 _atom_site_occupancy
  Ce  Ce0  1  0.74355740  0.49369935  0.24985805  1
  Ce  Ce1  1  0.25644260  0.50630065  0.75014195  1
  Au  Au2  1  0.84019427  0.83378538  0.00640989  1
  Au  Au3  1  0.15980573  0.16621462  0.99359011  1
  Au  Au4  1  0.67394148  0.16621112  0.50773035  1
  Au  Au5  1  0.32605852  0.83378888  0.49226965  1
