# generated using pymatgen
data_CeGaSi
_symmetry_space_group_name_H-M   'P 1'
_cell_length_a   4.22385274
_cell_length_b   4.28269632
_cell_length_c   7.71241343
_cell_angle_alpha   73.87327487
_cell_angle_beta   74.68075256
_cell_angle_gamma   90.00673005
_symmetry_Int_Tables_number   1
_chemical_formula_structural   CeGaSi
_chemical_formula_sum   'Ce2 Ga2 Si2'
_cell_volume   128.85421569
_cell_formula_units_Z   2
loop_
 _symmetry_equiv_pos_site_id
 _symmetry_equiv_pos_as_xyz
  1  'x, y, z'
loop_
 _atom_site_type_symbol
 _atom_site_label
 _atom_site_symmetry_multiplicity
 _atom_site_fract_x
 _atom_site_fract_y
 _atom_site_fract_z
 _atom_site_occupancy
  Ce  Ce0  1  0.74740784  0.24367947  0.51239485  1
  Ce  Ce1  1  0.00257438  0.00629325  0.98765446  1
  Ga  Ga2  1  0.33300068  0.83357380  0.33286975  1
  Ga  Ga3  1  0.41704339  0.41647646  0.16702729  1
  Si  Si4  1  0.16502851  0.66534647  0.66940938  1
  Si  Si5  1  0.58494520  0.58462954  0.83064427  1
